benchmarks/results/pandapower_comparison.csv
group,case,n_bus,t_pandapower_ms,t_casadi_ms,slow_casadi,vm_err_pu,p_err_mw,cost_rel_err,ok
PF,PF · cigre_mv,15,11.9,19.1,1.6,0.0002867285304145595,0.0005157822220169805,,True
PF,PF · cigre_mv + DER,15,13.1,19.4,1.48,0.0002685812951090938,0.00045072249828592703,,True
PF,PF · cigre_lv,44,11.3,41.8,3.71,0.00412598192823066,7.298908366593082e-09,,True
OPF,OPF · feeder_40,40,62.1,53.1,0.85,2.298119183841152e-08,3.42885306636731e-06,2.245743201402188e-07,True
OPF,OPF · feeder_80,80,66.9,92.0,1.38,2.7605020935794755e-08,2.0200808982906437e-05,3.9433134299266423e-07,True
OPF-LL,OPF-LL · feeder_40,40,111.0,65.6,0.59,7.694371497724006e-07,0.0001469237974891513,2.294181287384342e-05,True
OPF-LL,OPF-LL · feeder_80,80,126.2,111.8,0.89,5.462776897502408e-10,2.4634297730585786e-06,1.9373120137683394e-07,True
